<?xml version="1.0" encoding="UTF-8"?>
<nodes>
    <node id="center" x="0" y="0" type="traffic_light"/>
    <node id="r1_start" x="500" y="0" type="priority"/>
    <node id="r1_end" x="-500" y="0" type="priority"/>
    <node id="r2_start" x="-500" y="0" type="priority"/>
    <node id="r2_end_straight" x="500" y="0" type="priority"/>
    <node id="r2_end_left" x="0" y="500" type="priority"/>
    <node id="r3_start" x="0" y="500" type="priority"/>
    <node id="r3_end" x="500" y="0" type="priority"/>
</nodes>